
 ANSYS Multiphysics                                


 *------------------------------------------------------------------*
 |                                                                  |
 |   W E L C O M E   T O   T H E   A N S Y S (R)  P R O G R A M     |
 |                                                                  |
 *------------------------------------------------------------------*




 ***************************************************************
 *                  ANSYS 14.0 LEGAL NOTICES                   *
 ***************************************************************
 *                                                             *
 * Copyright 2011 SAS IP, Inc.  All rights reserved.           *
 * Unauthorized use, distribution or duplication is            *
 * prohibited.                                                 *
 *                                                             *
 * Ansys is a registered trademark of ANSYS, Inc. or its       *
 * subsidiaries in the United States or other countries.       *
 * See the ANSYS, Inc. online documentation or the ANSYS, Inc. *
 * documentation CD or online help for the complete Legal      *
 * Notice.                                                     *
 *                                                             *
 ***************************************************************
 *                                                             *
 * THIS ANSYS SOFTWARE PRODUCT AND PROGRAM DOCUMENTATION       *
 * INCLUDE TRADE SECRETS AND CONFIDENTIAL AND PROPRIETARY      *
 * PRODUCTS OF ANSYS, INC., ITS SUBSIDIARIES, OR LICENSORS.    *
 * The software products and documentation are furnished by    *
 * ANSYS, Inc. or its subsidiaries under a software license    *
 * agreement that contains provisions concerning               *
 * non-disclosure, copying, length and nature of use,          *
 * compliance with exporting laws, warranties, disclaimers,    *
 * limitations of liability, and remedies, and other           *
 * provisions.  The software products and documentation may be *
 * used, disclosed, transferred, or copied only in accordance  *
 * with the terms and conditions of that software license      *
 * agreement.                                                  *
 *                                                             *
 * ANSYS, Inc. is a UL registered                              *
 * ISO 9001:2008 company.                                      *
 *                                                             *
 ***************************************************************
 *                                                             *
 * This product is subject to U.S. laws governing export and   *
 * re-export.                                                  *
 *                                                             *
 * For U.S. Government users, except as specifically granted   *
 * by the ANSYS, Inc. software license agreement, the use,     *
 * duplication, or disclosure by the United States Government  *
 * is subject to restrictions stated in the ANSYS, Inc.        *
 * software license agreement and FAR 12.212 (for non-DOD      *
 * licenses).                                                  *
 *                                                             *
 ***************************************************************



          *****  ANSYS COMMAND LINE ARGUMENTS  *****
  BATCH MODE REQUESTED (-b)    = NOLIST
  INPUT FILE COPY MODE (-c)    = COPY
     2 PARALLEL CPUS REQUESTED
  START-UP FILE MODE           = NOREAD
  STOP FILE MODE               = NOREAD

 00000000          VERSION=WINDOWS x64     RELEASE= 14.0     UP20111024
 CURRENT JOBNAME=file  14:02:44  APR 20, 2015 CP=      2.777


 PARAMETER _DS_PROGRESS =     999.0000000    

 /INPUT FILE= ds.dat  LINE=       0



 DO NOT WRITE ELEMENT RESULTS INTO DATABASE

 *GET  _WALLSTRT  FROM  ACTI  ITEM=TIME WALL  VALUE=  14.0455556    

 ASSIGN FILE RSTP TO file.rst                                                                                                                                                                                                                                                            

 *** NOTE ***                            CP =       2.808   TIME= 14:02:44
 File= file.rst does not exist and will be created.                      

 *****  ANSYS SOLUTION ROUTINE  *****


 PERFORM A STATIC ANALYSIS
  RESTART WILL BE PERFORMED FOR THE ANALYSIS OF LINEAR PERTURBATION
  RESTART WILL BE PERFORMED BASED ON: 
   PREVIOUS LOADSTEP =      1 SUBSTEP =      1

 RESUME ANSYS DATA FROM FILE NAME=file.rdb                                                                                                                                                                                                                                                            
     DO NOT PLOT ANYTHING

 *** ANSYS GLOBAL STATUS *** 

 TITLE = iMAmodel--Static Structural (B5)                                      
 ANALYSIS TYPE =  STATIC (STEADY-STATE)
 NUMBER OF ELEMENT TYPES =      2
     500 ELEMENTS CURRENTLY SELECTED.  MAX ELEMENT NUMBER =      500
    2315 NODES CURRENTLY SELECTED.     MAX NODE NUMBER =        2315
      1 COMPONENTS CURRENTLY DEFINED
 MAXIMUM LINEAR PROPERTY NUMBER        =       1
 ACTIVE COORDINATE SYSTEM              =       0  (CARTESIAN)  
 NUMBER OF SPECIFIED CONSTRAINTS       =     195
 NUMBER OF SPECIFIED SURFACE LOADS     =     100
 CURRENT LOAD CASE =      0 OF      0
 LOAD SET   =       1
 SUBSTEP    =       1
 TIME/FREQ  =    1.0000    

 INITIAL JOBNAME = file
 CURRENT JOBNAME = file

 RESTART PROCEDURE RE-BUILDS BOUNDARY CONDITIONS
 AND LOADING INFO UPTO THE CURRENT LOADSTEP 

 READ ANSYS LOADS DATA FROM FILE= file.ldhi                                                                                                                                                                                                                                                           

 DELETE SOLID MODEL BOUNDARY CONDITIONS
 
 NUMBER OF NODAL CONSTRAINTS DELETED                       =     195
 NUMBER OF ELEMENT PRESSURES DELETED                       =     100

 TITLE= 
 iMAmodel--Modal (C5)                                                          


 PERTURB: Enabling perturbation analysis with prestressed modal solution.
 PERTURB: Enabling perturbation contact status remains the same as in restart step.
 PERTURB: Enabling perturbation to delete all boundary conditions except for constraints and temperatures.

 *****  ANSYS SOLVE    COMMAND  *****
1

 ***** ANSYS - ENGINEERING ANALYSIS SYSTEM  RELEASE 14.0     *****
 ANSYS Multiphysics                                
 00000000          VERSION=WINDOWS x64   14:02:45  APR 20, 2015 CP=      3.260

 iMAmodel--Modal (C5)                                                          


                       S O L U T I O N   O P T I O N S

   PROBLEM DIMENSIONALITY. . . . . . . . . . . . .3-D                  
   DEGREES OF FREEDOM. . . . . . UX   UY   UZ  
   ANALYSIS TYPE . . . . . . . . . . . . . . . . .STATIC (STEADY-STATE)
      RESTART. . . . . . . . . . . . . . . . . . .ON
   LINEAR PERTURBATION . . . . . . . . . . . . . .ON
   OFFSET TEMPERATURE FROM ABSOLUTE ZERO . . . . .  273.15    

 *** WARNING ***                         CP =       3.260   TIME= 14:02:45
 Material number 2 (used by element 401 ) should normally have at least  
 one MP or one TB type command associated with it.  Output of energy by  
 material may not be available.                                          

 *** NOTE ***                            CP =       3.260   TIME= 14:02:45
 The step data was checked and warning messages were found.              
  Please review output or errors file (                                  
 C:\Users\slesh\Documents\MATLAB\Workspace\iMA\ansys\_ProjectScratch\Scr 
 r539D\file.err ) for these warning messages.                            

                      L O A D   S T E P   O P T I O N S

   SOLUTION TO BE PERTURBED CORRESPONDS TO
      TIME . . . . . . . . . . . . . . . . . . . .  1.0000    
      LOAD STEP. . . . . . . . . . . . . . . . . .     1
      SUBSTEP. . . . . . . . . . . . . . . . . . .     1
   STRESS-STIFFENING . . . . . . . . . . . . . . .    ON

 *** NOTE ***                            CP =       3.432   TIME= 14:02:45
 This SOLVE command is only used to generate the matrices needed to      
 perform the linear perturbation analysis.  The linear perturbation      
 analysis corresponds to time = 1 (load step = 1, substep = 1).  No      
 results are being written.                                              


 *** NOTE ***                            CP =       3.463   TIME= 14:02:45
 The PCG solver has automatically set the level of difficulty for this   
 model to 1.                                                             

 LINEAR PERTURBATION ANALYSIS PROCEDURE DELETES ALL
 BOUNDARY CONDITIONS EXCEPT CONSTRAINTS AND TEMPERATURES FROM DATABASE


 USE SYM. BLOCK LANCZOS MODE EXTRACTION METHOD
  EXTRACT   10 MODES
  NORMALIZE THE MODE SHAPES TO THE MASS MATRIX

 ERASE THE CURRENT DATABASE OUTPUT CONTROL TABLE.


 WRITE ALL  ITEMS TO THE DATABASE WITH A FREQUENCY OF NONE
   FOR ALL APPLICABLE ENTITIES

 WRITE NSOL ITEMS TO THE DATABASE WITH A FREQUENCY OF ALL 
   FOR ALL APPLICABLE ENTITIES


 EXPAND ALL EXTRACTED MODES
  DO NOT CALCULATE ELEMENT RESULTS

 *GET  ANSINTER_  FROM  ACTI  ITEM=INT        VALUE=  0.00000000    

 *IF  ANSINTER_                         ( =   0.00000     )  NE  
      0                                 ( =   0.00000     )  THEN    

 *ENDIF

 *****  ANSYS SOLVE    COMMAND  *****

 *** WARNING ***                         CP =       4.228   TIME= 14:02:46
 Element shape checking is currently inactive.  Issue SHPP,ON or         
 SHPP,WARN to reactivate, if desired.                                    

 *** NOTE ***                            CP =       4.243   TIME= 14:02:46
 The model data was checked and warning messages were found.             
  Please review output or errors file (                                  
 C:\Users\slesh\Documents\MATLAB\Workspace\iMA\ansys\_ProjectScratch\Scr 
 r539D\file.err ) for these warning messages.                            

 *** SELECTION OF ELEMENT TECHNOLOGIES FOR APPLICABLE ELEMENTS ***
      --- GIVE SUGGESTIONS AND RESET THE KEY OPTIONS ---

 ELEMENT TYPE    1 IS SOLID186. KEYOPT(2) IS ALREADY SET AS SUGGESTED AND NO
 RESETTING IS NEEDED.


1

 ***** ANSYS - ENGINEERING ANALYSIS SYSTEM  RELEASE 14.0     *****
 ANSYS Multiphysics                                
 00000000          VERSION=WINDOWS x64   14:02:46  APR 20, 2015 CP=      4.259

 iMAmodel--Modal (C5)                                                          


                       S O L U T I O N   O P T I O N S

   PROBLEM DIMENSIONALITY. . . . . . . . . . . . .3-D                  
   DEGREES OF FREEDOM. . . . . . UX   UY   UZ  
   ANALYSIS TYPE . . . . . . . . . . . . . . . . .MODAL                
      EXTRACTION METHOD. . . . . . . . . . . . . .BLOCK LANCZOS
   LINEAR PERTURBATION . . . . . . . . . . . . . .ON
   OFFSET TEMPERATURE FROM ABSOLUTE ZERO . . . . .  273.15    
   PRESTRESS EFFECTS INCLUDED IF AVAILABLE . . . .YES
   NUMBER OF MODES TO EXTRACT. . . . . . . . . . .    10
   GLOBALLY ASSEMBLED MATRIX . . . . . . . . . . .SYMMETRIC  
   NUMBER OF MODES TO EXPAND . . . . . . . . . . .ALL
   ELEMENT RESULTS CALCULATION . . . . . . . . . .OFF

 *** WARNING ***                         CP =       4.259   TIME= 14:02:46
 Material number 2 (used by element 401 ) should normally have at least  
 one MP or one TB type command associated with it.  Output of energy by  
 material may not be available.                                          

 *** NOTE ***                            CP =       4.259   TIME= 14:02:46
 The step data was checked and warning messages were found.              
  Please review output or errors file (                                  
 C:\Users\slesh\Documents\MATLAB\Workspace\iMA\ansys\_ProjectScratch\Scr 
 r539D\file.err ) for these warning messages.                            

                      L O A D   S T E P   O P T I O N S

   LOAD STEP NUMBER. . . . . . . . . . . . . . . .     1
   PRINT OUTPUT CONTROLS . . . . . . . . . . . . .NO PRINTOUT
   DATABASE OUTPUT CONTROLS
      ITEM     FREQUENCY   COMPONENT
       ALL       NONE               
      NSOL        ALL               


  BLOCK LANCZOS CALCULATION OF UP TO   10 EIGENVECTORS.
  NUMBER OF EQUATIONS              =         6750
  MAXIMUM WAVEFRONT                =          180
  MAXIMUM MODES STORED             =           10
  MINIMUM EIGENVALUE               =  0.00000E+00
  MAXIMUM EIGENVALUE               =  0.10000E+31


  LANCZOS CYCLE NUMBER =   1

     new shift:  1.2211D+04     modes still needed:       10

  FREQUENCIES AT CURRENT LANCZOS CYCLE
     1  0.24468653E+04     2  0.24475417E+04     3  0.28849427E+04
     4  0.50397655E+04     5  0.50748857E+04     6  0.53710194E+04
     7  0.53725557E+04     8  0.57255300E+04     9  0.63383557E+04
    10  0.63394794E+04    11  0.67761120E+04    12  0.68791786E+04
    13  0.69341056E+04

     number of steps      :     11
     eigenvalues found    :     13
     total no. eigenvalues:     13

  LANCZOS CYCLE NUMBER =   2

     new shift:  1.6996D+09     modes still needed:        0
1

 ***** ANSYS - ENGINEERING ANALYSIS SYSTEM  RELEASE 14.0     *****
 ANSYS Multiphysics                                
 00000000          VERSION=WINDOWS x64   14:02:50  APR 20, 2015 CP=      8.128

 iMAmodel--Modal (C5)                                                          


 *** FREQUENCIES FROM BLOCK LANCZOS ITERATION ***

  MODE    FREQUENCY (HERTZ)      


    1     2446.865286371    
    2     2447.541737958    
    3     2884.942688530    
    4     5039.765487644    
    5     5074.885700134    
    6     5371.019393391    
    7     5372.555704356    
    8     5725.529955029    
    9     6338.355677634    
   10     6339.479351483    
1

 ***** ANSYS - ENGINEERING ANALYSIS SYSTEM  RELEASE 14.0     *****
 ANSYS Multiphysics                                
 00000000          VERSION=WINDOWS x64   14:02:52  APR 20, 2015 CP=      8.284

 iMAmodel--Modal (C5)                                                          




          ***** PARTICIPATION FACTOR CALCULATION *****  X  DIRECTION
                                                                                  CUMULATIVE     RATIO EFF.MASS
  MODE   FREQUENCY       PERIOD      PARTIC.FACTOR     RATIO    EFFECTIVE MASS   MASS FRACTION   TO TOTAL MASS
    1     2446.87       0.40869E-03    10.038        1.000000     100.754        0.419222        0.348102    
    2     2447.54       0.40857E-03   -9.9847        0.994730     99.6944        0.834036        0.344443    
    3     2884.94       0.34663E-03  -0.52474E-02    0.000523    0.275348E-04    0.834036        0.951323E-07
    4     5039.77       0.19842E-03   0.50474E-03    0.000050    0.254758E-06    0.834036        0.880187E-09
    5     5074.89       0.19705E-03   0.33691E-02    0.000336    0.113508E-04    0.834036        0.392169E-07
    6     5371.02       0.18618E-03    4.0957        0.408033     16.7745        0.903833        0.579558E-01
    7     5372.56       0.18613E-03   -4.0894        0.407413     16.7236        0.973417        0.577798E-01
    8     5725.53       0.17466E-03  -0.21267E-02    0.000212    0.452286E-05    0.973417        0.156264E-07
    9     6338.36       0.15777E-03    1.8059        0.179916     3.26137        0.986988        0.112680E-01
   10     6339.48       0.15774E-03   -1.7684        0.176180     3.12734         1.00000        0.108049E-01
 -----------------------------------------------------------------------------------------------------------------
   sum                                                            240.335                        0.830354    
 -----------------------------------------------------------------------------------------------------------------



          ***** PARTICIPATION FACTOR CALCULATION *****  Y  DIRECTION
                                                                                  CUMULATIVE     RATIO EFF.MASS
  MODE   FREQUENCY       PERIOD      PARTIC.FACTOR     RATIO    EFFECTIVE MASS   MASS FRACTION   TO TOTAL MASS
    1     2446.87       0.40869E-03    9.9843        0.994656     99.6870        0.414784        0.344417    
    2     2447.54       0.40857E-03    10.038        1.000000     100.761        0.834037        0.348128    
    3     2884.94       0.34663E-03   0.54652E-02    0.000544    0.298689E-04    0.834037        0.103197E-06
    4     5039.77       0.19842E-03   0.61531E-03    0.000061    0.378611E-06    0.834037        0.130810E-08
    5     5074.89       0.19705E-03   0.31475E-02    0.000314    0.990706E-05    0.834037        0.342288E-07
    6     5371.02       0.18618E-03   -4.0863        0.407079     16.6975        0.903513        0.576895E-01
    7     5372.56       0.18613E-03   -4.0988        0.408331     16.8003        0.973416        0.580448E-01
    8     5725.53       0.17466E-03   0.21069E-02    0.000210    0.443895E-05    0.973416        0.153365E-07
    9     6338.36       0.15777E-03   -1.7757        0.176894     3.15296        0.986535        0.108934E-01
   10     6339.48       0.15774E-03   -1.7989        0.179208     3.23600         1.00000        0.111803E-01
 -----------------------------------------------------------------------------------------------------------------
   sum                                                            240.335                        0.830354    
 -----------------------------------------------------------------------------------------------------------------



          ***** PARTICIPATION FACTOR CALCULATION *****  Z  DIRECTION
                                                                                  CUMULATIVE     RATIO EFF.MASS
  MODE   FREQUENCY       PERIOD      PARTIC.FACTOR     RATIO    EFFECTIVE MASS   MASS FRACTION   TO TOTAL MASS
    1     2446.87       0.40869E-03  -0.31941E-03    0.000022    0.102020E-06    0.492315E-09    0.352479E-09
    2     2447.54       0.40857E-03  -0.51209E-04    0.000004    0.262240E-08    0.504970E-09    0.906036E-11
    3     2884.94       0.34663E-03  -0.10503E-06    0.000000    0.110304E-13    0.504970E-09    0.381098E-16
    4     5039.77       0.19842E-03    14.395        1.000000     207.212        0.999931        0.715914    
    5     5074.89       0.19705E-03  -0.11944        0.008298    0.142670E-01     1.00000        0.492922E-04
    6     5371.02       0.18618E-03   0.10536E-03    0.000007    0.111001E-07     1.00000        0.383509E-10
    7     5372.56       0.18613E-03   0.12080E-02    0.000084    0.145929E-05     1.00000        0.504183E-08
    8     5725.53       0.17466E-03   0.13787E-03    0.000010    0.190080E-07     1.00000        0.656724E-10
    9     6338.36       0.15777E-03   0.92059E-04    0.000006    0.847481E-08     1.00000        0.292804E-10
   10     6339.48       0.15774E-03  -0.41865E-02    0.000291    0.175268E-04     1.00000        0.605549E-07
 -----------------------------------------------------------------------------------------------------------------
   sum                                                            207.226                        0.715963    
 -----------------------------------------------------------------------------------------------------------------



          ***** PARTICIPATION FACTOR CALCULATION *****ROTX DIRECTION
                                                                                  CUMULATIVE
  MODE   FREQUENCY       PERIOD      PARTIC.FACTOR     RATIO    EFFECTIVE MASS   MASS FRACTION

    1     2446.87       0.40869E-03   -2.0162        0.735254     4.06505        0.248662    
    2     2447.54       0.40857E-03   -2.0268        0.739111     4.10780        0.499939    
    3     2884.94       0.34663E-03  -0.11639E-02    0.000424    0.135466E-05    0.499939    
    4     5039.77       0.19842E-03    2.7422        1.000000     7.51952        0.959914    
    5     5074.89       0.19705E-03  -0.22484E-01    0.008199    0.505549E-03    0.959945    
    6     5371.02       0.18618E-03  -0.50390        0.183760    0.253918        0.975478    
    7     5372.56       0.18613E-03  -0.50480        0.184089    0.254827        0.991066    
    8     5725.53       0.17466E-03  -0.50948E-03    0.000186    0.259570E-06    0.991066    
    9     6338.36       0.15777E-03  -0.26736        0.097501    0.714832E-01    0.995438    
   10     6339.48       0.15774E-03  -0.27308        0.099584    0.745712E-01     1.00000    
 ----------------------------------------------------------------------------------------------
   sum                                                            16.3477    
 ----------------------------------------------------------------------------------------------



          ***** PARTICIPATION FACTOR CALCULATION *****ROTY DIRECTION
                                                                                  CUMULATIVE
  MODE   FREQUENCY       PERIOD      PARTIC.FACTOR     RATIO    EFFECTIVE MASS   MASS FRACTION

    1     2446.87       0.40869E-03    2.0270        0.739176     4.10853        0.251322    
    2     2447.54       0.40857E-03   -2.0160        0.735180     4.06423        0.499935    
    3     2884.94       0.34663E-03  -0.11192E-02    0.000408    0.125263E-05    0.499935    
    4     5039.77       0.19842E-03   -2.7422        1.000000     7.51954        0.959911    
    5     5074.89       0.19705E-03   0.22467E-01    0.008193    0.504748E-03    0.959942    
    6     5371.02       0.18618E-03  -0.50510        0.184196    0.255124        0.975548    
    7     5372.56       0.18613E-03   0.50364        0.183665    0.253656        0.991065    
    8     5725.53       0.17466E-03  -0.56311E-03    0.000205    0.317097E-06    0.991065    
    9     6338.36       0.15777E-03  -0.27199        0.099189    0.739799E-01    0.995590    
   10     6339.48       0.15774E-03   0.26850        0.097916    0.720934E-01     1.00000    
 ----------------------------------------------------------------------------------------------
   sum                                                            16.3477    
 ----------------------------------------------------------------------------------------------



          ***** PARTICIPATION FACTOR CALCULATION *****ROTZ DIRECTION
                                                                                  CUMULATIVE
  MODE   FREQUENCY       PERIOD      PARTIC.FACTOR     RATIO    EFFECTIVE MASS   MASS FRACTION

    1     2446.87       0.40869E-03  -0.10125E-01    0.002654    0.102523E-03    0.445367E-05
    2     2447.54       0.40857E-03    3.8157        1.000000     14.5596        0.632486    
    3     2884.94       0.34663E-03   -2.3589        0.618209     5.56443        0.874209    
    4     5039.77       0.19842E-03   0.20953E-04    0.000005    0.439033E-09    0.874209    
    5     5074.89       0.19705E-03  -0.53961E-04    0.000014    0.291176E-08    0.874209    
    6     5371.02       0.18618E-03   -1.5586        0.408465     2.42918        0.979734    
    7     5372.56       0.18613E-03  -0.17836E-02    0.000467    0.318135E-05    0.979734    
    8     5725.53       0.17466E-03   0.14636E-02    0.000384    0.214212E-05    0.979734    
    9     6338.36       0.15777E-03  -0.68300        0.178996    0.466483        0.999999    
   10     6339.48       0.15774E-03  -0.58082E-02    0.001522    0.337356E-04     1.00000    
 ----------------------------------------------------------------------------------------------
   sum                                                            23.0199    
 ----------------------------------------------------------------------------------------------


 *** ANSYS BINARY FILE STATISTICS
  BUFFER SIZE USED= 16384
       23.875 MB WRITTEN ON ELEMENT MATRIX FILE: file.emat
        2.562 MB WRITTEN ON ELEMENT SAVED DATA FILE: file.esav
        7.938 MB WRITTEN ON ASSEMBLED MATRIX FILE: file.full
        0.500 MB WRITTEN ON MODAL MATRIX FILE: file.mode
        1.250 MB WRITTEN ON RESULTS FILE: file.rst
 *************** Write FE CONNECTORS *********

 WRITE OUT CONSTRAINT EQUATIONS TO FILE= file.ce                                                                                                                                                                                                                                                             

 FINISH SOLUTION PROCESSING


 ***** ROUTINE COMPLETED *****  CP =         8.299



 *GET  _WALLASOL  FROM  ACTI  ITEM=TIME WALL  VALUE=  14.0477778    
1

 ***** ANSYS - ENGINEERING ANALYSIS SYSTEM  RELEASE 14.0     *****
 ANSYS Multiphysics                                
 00000000          VERSION=WINDOWS x64   14:02:53  APR 20, 2015 CP=      8.315

 iMAmodel--Modal (C5)                                                          


          ***** ANSYS RESULTS INTERPRETATION (POST1) *****

 *** NOTE ***                            CP =       8.315   TIME= 14:02:53
 Reading results into the database (SET command) will update the current 
 displacement and force boundary conditions in the database with the     
 values from the results file for that load set.  Note that any          
 subsequent solutions will use these values unless action is taken to    
 either SAVE the current values or not overwrite them (/EXIT,NOSAVE).    

 Set Encoding of XML File to:ISO-8859-1

 Set Output of XML File to:
     PARM,     ,     ,     ,     ,     ,     ,     ,     ,     ,     ,     ,
         ,     ,     ,     ,     ,     ,     ,

 DATABASE WRITTEN ON FILE  parm.xml                                                                                                                                                                                                                                                            

 EXIT THE ANSYS POST1 DATABASE PROCESSOR


 ***** ROUTINE COMPLETED *****  CP =         8.315



 PRINTOUT RESUMED BY /GOP

 *GET  _WALLDONE  FROM  ACTI  ITEM=TIME WALL  VALUE=  14.0480556    

 PARAMETER _PREPTIME =     0.000000000    

 PARAMETER _SOLVTIME =     38.00000000    

 PARAMETER _POSTTIME =     1.000000000    

 PARAMETER _TOTALTIM =     39.00000000    

 EXIT ANSYS WITHOUT SAVING DATABASE


 NUMBER OF WARNING MESSAGES ENCOUNTERED=          3
 NUMBER OF ERROR   MESSAGES ENCOUNTERED=          0

+--------------------- A N S Y S   S T A T I S T I C S ------------------------+

Release: 14.0       Build: UP20111024   Platform: WINDOWS x64 
Date Run: 04/20/2015   Time: 14:02
Windows Process ID:         6076

Compiler: Intel(R) FORTRAN Compiler Version 11.1.0  (Build: 20100414)
          Microsoft(R) Visual C/C++ Compiler Version 15.0  (Build: 30729)
          Intel(R) Math Kernel Library Version 10.3.3 Product Build 20110314

Number of cores:   2 (Shared Memory Parallel)

GPU Acceleration: Not Requested

Job Name: file
Working Directory: C:\Users\slesh\Documents\MATLAB\Workspace\iMA\ansys\_ProjectScratch\Scr539D

Elapsed time spent pre-processing model (/PREP7)  :      0.0 seconds
Elapsed time spent solution - preprocessing       :      0.1 seconds
Elapsed time spent computing solution             :      7.2 seconds
Elapsed time spent solution - postprocessing      :      0.0 seconds
Elapsed time spent post-processing model (/POST1) :      0.0 seconds

Maximum total memory used                         :    608.0 Mbytes
Maximum total memory allocated                    :   1028.0 Mbytes

+------------------ E N D   A N S Y S   S T A T I S T I C S -------------------+


 *---------------------------------------------------------------------------*
 |                                                                           |
 |                            ANSYS RUN COMPLETED                            |
 |                                                                           |
 |---------------------------------------------------------------------------|
 |                                                                           |
 |            Release 14.0           UP20111024         WINDOWS x64          |
 |                                                                           |
 |---------------------------------------------------------------------------|
 |                                                                           |
 | Database Requested(-db)   512 MB    Scratch Memory Requested       512 MB |
 | Maximum Database Used       2 MB    Maximum Scratch Memory Used     92 MB |
 |                                                                           |
 |---------------------------------------------------------------------------|
 |                                                                           |
 |        CP Time      (sec) =          8.330       Time  =  14:02:53        |
 |        Elapsed Time (sec) =         13.000       Date  =  04/20/2015      |
 |                                                                           |
 *---------------------------------------------------------------------------*
