
 ANSYS Multiphysics                                


 *------------------------------------------------------------------*
 |                                                                  |
 |   W E L C O M E   T O   T H E   A N S Y S (R)  P R O G R A M     |
 |                                                                  |
 *------------------------------------------------------------------*




 ***************************************************************
 *                  ANSYS 14.0 LEGAL NOTICES                   *
 ***************************************************************
 *                                                             *
 * Copyright 2011 SAS IP, Inc.  All rights reserved.           *
 * Unauthorized use, distribution or duplication is            *
 * prohibited.                                                 *
 *                                                             *
 * Ansys is a registered trademark of ANSYS, Inc. or its       *
 * subsidiaries in the United States or other countries.       *
 * See the ANSYS, Inc. online documentation or the ANSYS, Inc. *
 * documentation CD or online help for the complete Legal      *
 * Notice.                                                     *
 *                                                             *
 ***************************************************************
 *                                                             *
 * THIS ANSYS SOFTWARE PRODUCT AND PROGRAM DOCUMENTATION       *
 * INCLUDE TRADE SECRETS AND CONFIDENTIAL AND PROPRIETARY      *
 * PRODUCTS OF ANSYS, INC., ITS SUBSIDIARIES, OR LICENSORS.    *
 * The software products and documentation are furnished by    *
 * ANSYS, Inc. or its subsidiaries under a software license    *
 * agreement that contains provisions concerning               *
 * non-disclosure, copying, length and nature of use,          *
 * compliance with exporting laws, warranties, disclaimers,    *
 * limitations of liability, and remedies, and other           *
 * provisions.  The software products and documentation may be *
 * used, disclosed, transferred, or copied only in accordance  *
 * with the terms and conditions of that software license      *
 * agreement.                                                  *
 *                                                             *
 * ANSYS, Inc. is a UL registered                              *
 * ISO 9001:2008 company.                                      *
 *                                                             *
 ***************************************************************
 *                                                             *
 * This product is subject to U.S. laws governing export and   *
 * re-export.                                                  *
 *                                                             *
 * For U.S. Government users, except as specifically granted   *
 * by the ANSYS, Inc. software license agreement, the use,     *
 * duplication, or disclosure by the United States Government  *
 * is subject to restrictions stated in the ANSYS, Inc.        *
 * software license agreement and FAR 12.212 (for non-DOD      *
 * licenses).                                                  *
 *                                                             *
 ***************************************************************



          *****  ANSYS COMMAND LINE ARGUMENTS  *****
  BATCH MODE REQUESTED (-b)    = NOLIST
  INPUT FILE COPY MODE (-c)    = COPY
     2 PARALLEL CPUS REQUESTED
  START-UP FILE MODE           = NOREAD
  STOP FILE MODE               = NOREAD

 00000000          VERSION=WINDOWS x64     RELEASE= 14.0     UP20111024
 CURRENT JOBNAME=file  03:28:48  APR 12, 2015 CP=      2.231


 PARAMETER _DS_PROGRESS =     999.0000000    

 /INPUT FILE= ds.dat  LINE=       0



 DO NOT WRITE ELEMENT RESULTS INTO DATABASE

 *GET  _WALLSTRT  FROM  ACTI  ITEM=TIME WALL  VALUE=  3.48000000    

 ASSIGN FILE RSTP TO file.rst                                                                                                                                                                                                                                                            

 *** NOTE ***                            CP =       2.231   TIME= 03:28:48
 File= file.rst does not exist and will be created.                      

 *****  ANSYS SOLUTION ROUTINE  *****


 PERFORM A STATIC ANALYSIS
  RESTART WILL BE PERFORMED FOR THE ANALYSIS OF LINEAR PERTURBATION
  RESTART WILL BE PERFORMED BASED ON: 
   PREVIOUS LOADSTEP =      1 SUBSTEP =      1

 RESUME ANSYS DATA FROM FILE NAME=file.rdb                                                                                                                                                                                                                                                            
     DO NOT PLOT ANYTHING

 *** ANSYS GLOBAL STATUS *** 

 TITLE = ima-model--Static Structural (B5)                                     
 ANALYSIS TYPE =  STATIC (STEADY-STATE)
 NUMBER OF ELEMENT TYPES =      2
     432 ELEMENTS CURRENTLY SELECTED.  MAX ELEMENT NUMBER =      432
    2126 NODES CURRENTLY SELECTED.     MAX NODE NUMBER =        2126
      1 COMPONENTS CURRENTLY DEFINED
 MAXIMUM LINEAR PROPERTY NUMBER        =       1
 ACTIVE COORDINATE SYSTEM              =       0  (CARTESIAN)  
 NUMBER OF SPECIFIED CONSTRAINTS       =     186
 NUMBER OF SPECIFIED SURFACE LOADS     =      72
 CURRENT LOAD CASE =      0 OF      0
 LOAD SET   =       1
 SUBSTEP    =       1
 TIME/FREQ  =    1.0000    

 INITIAL JOBNAME = file
 CURRENT JOBNAME = file

 RESTART PROCEDURE RE-BUILDS BOUNDARY CONDITIONS
 AND LOADING INFO UPTO THE CURRENT LOADSTEP 

 READ ANSYS LOADS DATA FROM FILE= file.ldhi                                                                                                                                                                                                                                                           

 DELETE SOLID MODEL BOUNDARY CONDITIONS
 
 NUMBER OF NODAL CONSTRAINTS DELETED                       =     186
 NUMBER OF ELEMENT PRESSURES DELETED                       =      72

 TITLE= 
 ima-model--Modal (C5)                                                         


 PERTURB: Enabling perturbation analysis with prestressed modal solution.
 PERTURB: Enabling perturbation contact status remains the same as in restart step.
 PERTURB: Enabling perturbation to delete all boundary conditions except for constraints and temperatures.

 *****  ANSYS SOLVE    COMMAND  *****
1

 ***** ANSYS - ENGINEERING ANALYSIS SYSTEM  RELEASE 14.0     *****
 ANSYS Multiphysics                                
 00000000          VERSION=WINDOWS x64   03:28:49  APR 12, 2015 CP=      2.512

 ima-model--Modal (C5)                                                         


                       S O L U T I O N   O P T I O N S

   PROBLEM DIMENSIONALITY. . . . . . . . . . . . .3-D                  
   DEGREES OF FREEDOM. . . . . . UX   UY   UZ  
   ANALYSIS TYPE . . . . . . . . . . . . . . . . .STATIC (STEADY-STATE)
      RESTART. . . . . . . . . . . . . . . . . . .ON
   LINEAR PERTURBATION . . . . . . . . . . . . . .ON
   OFFSET TEMPERATURE FROM ABSOLUTE ZERO . . . . .  273.15    

 *** WARNING ***                         CP =       2.543   TIME= 03:28:49
 Material number 2 (used by element 361 ) should normally have at least  
 one MP or one TB type command associated with it.  Output of energy by  
 material may not be available.                                          

 *** NOTE ***                            CP =       2.543   TIME= 03:28:49
 The step data was checked and warning messages were found.              
  Please review output or errors file (                                  
 C:\Users\slesh\Documents\ANSYS\ExcelPythonDocExample_2\_ProjectScratch\ 
 \Scr3B1F\file.err ) for these warning messages.                         

                      L O A D   S T E P   O P T I O N S

   SOLUTION TO BE PERTURBED CORRESPONDS TO
      TIME . . . . . . . . . . . . . . . . . . . .  1.0000    
      LOAD STEP. . . . . . . . . . . . . . . . . .     1
      SUBSTEP. . . . . . . . . . . . . . . . . . .     1
   STRESS-STIFFENING . . . . . . . . . . . . . . .    ON

 *** NOTE ***                            CP =       2.730   TIME= 03:28:49
 This SOLVE command is only used to generate the matrices needed to      
 perform the linear perturbation analysis.  The linear perturbation      
 analysis corresponds to time = 1 (load step = 1, substep = 1).  No      
 results are being written.                                              


 *** NOTE ***                            CP =       2.824   TIME= 03:28:49
 The PCG solver has automatically set the level of difficulty for this   
 model to 1.                                                             

 LINEAR PERTURBATION ANALYSIS PROCEDURE DELETES ALL
 BOUNDARY CONDITIONS EXCEPT CONSTRAINTS AND TEMPERATURES FROM DATABASE


 USE SYM. BLOCK LANCZOS MODE EXTRACTION METHOD
  EXTRACT   10 MODES
  NORMALIZE THE MODE SHAPES TO THE MASS MATRIX

 ERASE THE CURRENT DATABASE OUTPUT CONTROL TABLE.


 WRITE ALL  ITEMS TO THE DATABASE WITH A FREQUENCY OF NONE
   FOR ALL APPLICABLE ENTITIES

 WRITE NSOL ITEMS TO THE DATABASE WITH A FREQUENCY OF ALL 
   FOR ALL APPLICABLE ENTITIES


 EXPAND ALL EXTRACTED MODES
  DO NOT CALCULATE ELEMENT RESULTS

 *GET  ANSINTER_  FROM  ACTI  ITEM=INT        VALUE=  0.00000000    

 *IF  ANSINTER_                         ( =   0.00000     )  NE  
      0                                 ( =   0.00000     )  THEN    

 *ENDIF

 *****  ANSYS SOLVE    COMMAND  *****

 *** WARNING ***                         CP =       3.728   TIME= 03:28:50
 Element shape checking is currently inactive.  Issue SHPP,ON or         
 SHPP,WARN to reactivate, if desired.                                    

 *** NOTE ***                            CP =       3.728   TIME= 03:28:50
 The model data was checked and warning messages were found.             
  Please review output or errors file (                                  
 C:\Users\slesh\Documents\ANSYS\ExcelPythonDocExample_2\_ProjectScratch\ 
 \Scr3B1F\file.err ) for these warning messages.                         

 *** SELECTION OF ELEMENT TECHNOLOGIES FOR APPLICABLE ELEMENTS ***
      --- GIVE SUGGESTIONS AND RESET THE KEY OPTIONS ---

 ELEMENT TYPE    1 IS SOLID186. KEYOPT(2) IS ALREADY SET AS SUGGESTED AND NO
 RESETTING IS NEEDED.


1

 ***** ANSYS - ENGINEERING ANALYSIS SYSTEM  RELEASE 14.0     *****
 ANSYS Multiphysics                                
 00000000          VERSION=WINDOWS x64   03:28:50  APR 12, 2015 CP=      3.728

 ima-model--Modal (C5)                                                         


                       S O L U T I O N   O P T I O N S

   PROBLEM DIMENSIONALITY. . . . . . . . . . . . .3-D                  
   DEGREES OF FREEDOM. . . . . . UX   UY   UZ  
   ANALYSIS TYPE . . . . . . . . . . . . . . . . .MODAL                
      EXTRACTION METHOD. . . . . . . . . . . . . .BLOCK LANCZOS
   LINEAR PERTURBATION . . . . . . . . . . . . . .ON
   OFFSET TEMPERATURE FROM ABSOLUTE ZERO . . . . .  273.15    
   PRESTRESS EFFECTS INCLUDED IF AVAILABLE . . . .YES
   NUMBER OF MODES TO EXTRACT. . . . . . . . . . .    10
   GLOBALLY ASSEMBLED MATRIX . . . . . . . . . . .SYMMETRIC  
   NUMBER OF MODES TO EXPAND . . . . . . . . . . .ALL
   ELEMENT RESULTS CALCULATION . . . . . . . . . .OFF

 *** WARNING ***                         CP =       3.728   TIME= 03:28:50
 Material number 2 (used by element 361 ) should normally have at least  
 one MP or one TB type command associated with it.  Output of energy by  
 material may not be available.                                          

 *** NOTE ***                            CP =       3.728   TIME= 03:28:50
 The step data was checked and warning messages were found.              
  Please review output or errors file (                                  
 C:\Users\slesh\Documents\ANSYS\ExcelPythonDocExample_2\_ProjectScratch\ 
 \Scr3B1F\file.err ) for these warning messages.                         

                      L O A D   S T E P   O P T I O N S

   LOAD STEP NUMBER. . . . . . . . . . . . . . . .     1
   PRINT OUTPUT CONTROLS . . . . . . . . . . . . .NO PRINTOUT
   DATABASE OUTPUT CONTROLS
      ITEM     FREQUENCY   COMPONENT
       ALL       NONE               
      NSOL        ALL               


  BLOCK LANCZOS CALCULATION OF UP TO   10 EIGENVECTORS.
  NUMBER OF EQUATIONS              =         6192
  MAXIMUM WAVEFRONT                =          180
  MAXIMUM MODES STORED             =           10
  MINIMUM EIGENVALUE               =  0.00000E+00
  MAXIMUM EIGENVALUE               =  0.10000E+31


  LANCZOS CYCLE NUMBER =   1

     new shift:  7.2932D+03     modes still needed:       10

  FREQUENCIES AT CURRENT LANCZOS CYCLE
     1  0.12012711E+04     2  0.12592714E+04     3  0.19048905E+04
     4  0.33599596E+04     5  0.37100605E+04     6  0.37284863E+04
     7  0.55837522E+04     8  0.59371958E+04     9  0.67916864E+04
    10  0.68577035E+04    11  0.69485587E+04

     number of steps      :     11
     eigenvalues found    :     11
     total no. eigenvalues:     11

  LANCZOS CYCLE NUMBER =   2

     new shift:  1.8814D+09     modes still needed:        0
1

 ***** ANSYS - ENGINEERING ANALYSIS SYSTEM  RELEASE 14.0     *****
 ANSYS Multiphysics                                
 00000000          VERSION=WINDOWS x64   03:28:54  APR 12, 2015 CP=      7.457

 ima-model--Modal (C5)                                                         


 *** FREQUENCIES FROM BLOCK LANCZOS ITERATION ***

  MODE    FREQUENCY (HERTZ)      


    1     1201.271117943    
    2     1259.271412031    
    3     1904.890461021    
    4     3359.959591651    
    5     3710.060510997    
    6     3728.486292307    
    7     5583.752233745    
    8     5937.195779949    
    9     6791.686445540    
   10     6857.703530378    
1

 ***** ANSYS - ENGINEERING ANALYSIS SYSTEM  RELEASE 14.0     *****
 ANSYS Multiphysics                                
 00000000          VERSION=WINDOWS x64   03:28:55  APR 12, 2015 CP=      7.613

 ima-model--Modal (C5)                                                         




          ***** PARTICIPATION FACTOR CALCULATION *****  X  DIRECTION
                                                                                  CUMULATIVE     RATIO EFF.MASS
  MODE   FREQUENCY       PERIOD      PARTIC.FACTOR     RATIO    EFFECTIVE MASS   MASS FRACTION   TO TOTAL MASS
    1     1201.27       0.83245E-03    12.709        1.000000     161.516        0.722704        0.634131    
    2     1259.27       0.79411E-03  -0.46561E-10    0.000000    0.216797E-20    0.722704        0.851172E-23
    3     1904.89       0.52496E-03   0.17380E-03    0.000014    0.302075E-07    0.722704        0.118599E-09
    4     3359.96       0.29762E-03  -0.88628E-11    0.000000    0.785492E-22    0.722704        0.308394E-24
    5     3710.06       0.26954E-03    7.5154        0.591347     56.4807        0.975428        0.221750    
    6     3728.49       0.26821E-03  -0.55023E-11    0.000000    0.302758E-22    0.975428        0.118867E-24
    7     5583.75       0.17909E-03   0.40473E-04    0.000003    0.163808E-08    0.975428        0.643130E-11
    8     5937.20       0.16843E-03  -0.24676E-04    0.000002    0.608890E-09    0.975428        0.239058E-11
    9     6791.69       0.14724E-03   -2.3434        0.184391     5.49155         1.00000        0.215605E-01
   10     6857.70       0.14582E-03  -0.13381E-07    0.000000    0.179041E-15     1.00000        0.702938E-18
 -----------------------------------------------------------------------------------------------------------------
   sum                                                            223.488                        0.877442    
 -----------------------------------------------------------------------------------------------------------------



          ***** PARTICIPATION FACTOR CALCULATION *****  Y  DIRECTION
                                                                                  CUMULATIVE     RATIO EFF.MASS
  MODE   FREQUENCY       PERIOD      PARTIC.FACTOR     RATIO    EFFECTIVE MASS   MASS FRACTION   TO TOTAL MASS
    1     1201.27       0.83245E-03   0.46566E-10    0.000000    0.216835E-20    0.962076E-23    0.851322E-23
    2     1259.27       0.79411E-03    12.758        1.000000     162.773        0.722210        0.639069    
    3     1904.89       0.52496E-03  -0.25505E-11    0.000000    0.650494E-23    0.722210        0.255392E-25
    4     3359.96       0.29762E-03   0.55018E-04    0.000004    0.302698E-08    0.722210        0.118843E-10
    5     3710.06       0.26954E-03   0.56956E-11    0.000000    0.324394E-22    0.722210        0.127361E-24
    6     3728.49       0.26821E-03    7.4346        0.582729     55.2736        0.967453        0.217011    
    7     5583.75       0.17909E-03   0.56457E-10    0.000000    0.318742E-20    0.967453        0.125142E-22
    8     5937.20       0.16843E-03   0.36776E-09    0.000000    0.135244E-18    0.967453        0.530986E-21
    9     6791.69       0.14724E-03  -0.40021E-09    0.000000    0.160172E-18    0.967453        0.628854E-21
   10     6857.70       0.14582E-03   -2.7084        0.212288     7.33556         1.00000        0.288003E-01
 -----------------------------------------------------------------------------------------------------------------
   sum                                                            225.383                        0.884880    
 -----------------------------------------------------------------------------------------------------------------



          ***** PARTICIPATION FACTOR CALCULATION *****  Z  DIRECTION
                                                                                  CUMULATIVE     RATIO EFF.MASS
  MODE   FREQUENCY       PERIOD      PARTIC.FACTOR     RATIO    EFFECTIVE MASS   MASS FRACTION   TO TOTAL MASS
    1     1201.27       0.83245E-03   0.68617E-12    0.000000    0.470828E-24    0.237142E-26    0.184853E-26
    2     1259.27       0.79411E-03  -0.13516E-03    0.000010    0.182690E-07    0.920151E-10    0.717262E-10
    3     1904.89       0.52496E-03  -0.70710E-12    0.000000    0.499993E-24    0.920151E-10    0.196304E-26
    4     3359.96       0.29762E-03    14.091        1.000000     198.543         1.00000        0.779504    
    5     3710.06       0.26954E-03   0.18351E-10    0.000000    0.336762E-21     1.00000        0.132217E-23
    6     3728.49       0.26821E-03   0.94175E-04    0.000007    0.886899E-08     1.00000        0.348207E-10
    7     5583.75       0.17909E-03   0.58479E-11    0.000000    0.341984E-22     1.00000        0.134267E-24
    8     5937.20       0.16843E-03  -0.11028E-08    0.000000    0.121612E-17     1.00000        0.477462E-20
    9     6791.69       0.14724E-03   0.10125E-07    0.000000    0.102518E-15     1.00000        0.402497E-18
   10     6857.70       0.14582E-03   0.14933E-04    0.000001    0.222987E-09     1.00000        0.875474E-12
 -----------------------------------------------------------------------------------------------------------------
   sum                                                            198.543                        0.779504    
 -----------------------------------------------------------------------------------------------------------------



          ***** PARTICIPATION FACTOR CALCULATION *****ROTX DIRECTION
                                                                                  CUMULATIVE
  MODE   FREQUENCY       PERIOD      PARTIC.FACTOR     RATIO    EFFECTIVE MASS   MASS FRACTION

    1     1201.27       0.83245E-03  -0.13527E-10    0.000000    0.182970E-21    0.985793E-23
    2     1259.27       0.79411E-03   -3.7229        1.000000     13.8603        0.746757    
    3     1904.89       0.52496E-03   0.28512E-12    0.000000    0.812961E-25    0.746757    
    4     3359.96       0.29762E-03    2.1474        0.576792     4.61117        0.995196    
    5     3710.06       0.26954E-03   0.27399E-11    0.000000    0.750710E-23    0.995196    
    6     3728.49       0.26821E-03  -0.76740E-01    0.020613    0.588908E-02    0.995513    
    7     5583.75       0.17909E-03  -0.65761E-11    0.000000    0.432451E-22    0.995513    
    8     5937.20       0.16843E-03  -0.23455E-09    0.000000    0.550154E-19    0.995513    
    9     6791.69       0.14724E-03   0.20100E-08    0.000000    0.404021E-17    0.995513    
   10     6857.70       0.14582E-03   0.28859        0.077517    0.832849E-01     1.00000    
 ----------------------------------------------------------------------------------------------
   sum                                                            18.5607    
 ----------------------------------------------------------------------------------------------



          ***** PARTICIPATION FACTOR CALCULATION *****ROTY DIRECTION
                                                                                  CUMULATIVE
  MODE   FREQUENCY       PERIOD      PARTIC.FACTOR     RATIO    EFFECTIVE MASS   MASS FRACTION

    1     1201.27       0.83245E-03    3.6892        1.000000     13.6101        0.776500    
    2     1259.27       0.79411E-03   0.18882E-04    0.000005    0.356538E-09    0.776500    
    3     1904.89       0.52496E-03   0.72009E-04    0.000020    0.518526E-08    0.776500    
    4     3359.96       0.29762E-03   -1.9684        0.533572     3.87478        0.997569    
    5     3710.06       0.26954E-03   0.16819        0.045589    0.282871E-01    0.999183    
    6     3728.49       0.26821E-03  -0.13156E-04    0.000004    0.173088E-09    0.999183    
    7     5583.75       0.17909E-03   0.10106E-04    0.000003    0.102132E-09    0.999183    
    8     5937.20       0.16843E-03   0.91034E-05    0.000002    0.828717E-10    0.999183    
    9     6791.69       0.14724E-03  -0.11969        0.032444    0.143266E-01     1.00000    
   10     6857.70       0.14582E-03  -0.20842E-05    0.000001    0.434385E-11     1.00000    
 ----------------------------------------------------------------------------------------------
   sum                                                            17.5275    
 ----------------------------------------------------------------------------------------------



          ***** PARTICIPATION FACTOR CALCULATION *****ROTZ DIRECTION
                                                                                  CUMULATIVE
  MODE   FREQUENCY       PERIOD      PARTIC.FACTOR     RATIO    EFFECTIVE MASS   MASS FRACTION

    1     1201.27       0.83245E-03   -1.9368        1.000000     3.75120        0.292426    
    2     1259.27       0.79411E-03    1.7823        0.920244     3.17670        0.540067    
    3     1904.89       0.52496E-03   -1.7054        0.880544     2.90852        0.766802    
    4     3359.96       0.29762E-03   0.76860E-05    0.000004    0.590749E-10    0.766802    
    5     3710.06       0.26954E-03   -1.1454        0.591364     1.31184        0.869067    
    6     3728.49       0.26821E-03    1.0386        0.536253     1.07872        0.953159    
    7     5583.75       0.17909E-03   0.49948        0.257891    0.249483        0.972608    
    8     5937.20       0.16843E-03   0.28402        0.146645    0.806689E-01    0.978897    
    9     6791.69       0.14724E-03   0.35714        0.184398    0.127550        0.988840    
   10     6857.70       0.14582E-03  -0.37837        0.195357    0.143161         1.00000    
 ----------------------------------------------------------------------------------------------
   sum                                                            12.8278    
 ----------------------------------------------------------------------------------------------


 *** ANSYS BINARY FILE STATISTICS
  BUFFER SIZE USED= 16384
       21.312 MB WRITTEN ON ELEMENT MATRIX FILE: file.emat
        2.312 MB WRITTEN ON ELEMENT SAVED DATA FILE: file.esav
        7.188 MB WRITTEN ON ASSEMBLED MATRIX FILE: file.full
        0.438 MB WRITTEN ON MODAL MATRIX FILE: file.mode
        1.188 MB WRITTEN ON RESULTS FILE: file.rst
 *************** Write FE CONNECTORS *********

 WRITE OUT CONSTRAINT EQUATIONS TO FILE= file.ce                                                                                                                                                                                                                                                             

 FINISH SOLUTION PROCESSING


 ***** ROUTINE COMPLETED *****  CP =         7.628



 *GET  _WALLASOL  FROM  ACTI  ITEM=TIME WALL  VALUE=  3.48194444    
1

 ***** ANSYS - ENGINEERING ANALYSIS SYSTEM  RELEASE 14.0     *****
 ANSYS Multiphysics                                
 00000000          VERSION=WINDOWS x64   03:28:55  APR 12, 2015 CP=      7.660

 ima-model--Modal (C5)                                                         


          ***** ANSYS RESULTS INTERPRETATION (POST1) *****

 *** NOTE ***                            CP =       7.660   TIME= 03:28:55
 Reading results into the database (SET command) will update the current 
 displacement and force boundary conditions in the database with the     
 values from the results file for that load set.  Note that any          
 subsequent solutions will use these values unless action is taken to    
 either SAVE the current values or not overwrite them (/EXIT,NOSAVE).    

 Set Encoding of XML File to:ISO-8859-1

 Set Output of XML File to:
     PARM,     ,     ,     ,     ,     ,     ,     ,     ,     ,     ,     ,
         ,     ,     ,     ,     ,     ,     ,

 DATABASE WRITTEN ON FILE  parm.xml                                                                                                                                                                                                                                                            

 EXIT THE ANSYS POST1 DATABASE PROCESSOR


 ***** ROUTINE COMPLETED *****  CP =         7.660



 PRINTOUT RESUMED BY /GOP

 *GET  _WALLDONE  FROM  ACTI  ITEM=TIME WALL  VALUE=  3.48194444    

 PARAMETER _PREPTIME =     2.000000000    

 PARAMETER _SOLVTIME =     43.00000000    

 PARAMETER _POSTTIME =     0.000000000    

 PARAMETER _TOTALTIM =     45.00000000    

 EXIT ANSYS WITHOUT SAVING DATABASE


 NUMBER OF WARNING MESSAGES ENCOUNTERED=          3
 NUMBER OF ERROR   MESSAGES ENCOUNTERED=          0

+--------------------- A N S Y S   S T A T I S T I C S ------------------------+

Release: 14.0       Build: UP20111024   Platform: WINDOWS x64 
Date Run: 04/12/2015   Time: 03:28
Windows Process ID:         7008

Compiler: Intel(R) FORTRAN Compiler Version 11.1.0  (Build: 20100414)
          Microsoft(R) Visual C/C++ Compiler Version 15.0  (Build: 30729)
          Intel(R) Math Kernel Library Version 10.3.3 Product Build 20110314

Number of cores:   2 (Shared Memory Parallel)

GPU Acceleration: Not Requested

Job Name: file
Working Directory: C:\Users\slesh\Documents\ANSYS\ExcelPythonDocExample_2\_ProjectScratch\Scr3B1F

Elapsed time spent pre-processing model (/PREP7)  :      0.0 seconds
Elapsed time spent solution - preprocessing       :      0.1 seconds
Elapsed time spent computing solution             :      5.8 seconds
Elapsed time spent solution - postprocessing      :      0.0 seconds
Elapsed time spent post-processing model (/POST1) :      0.0 seconds

Maximum total memory used                         :    600.0 Mbytes
Maximum total memory allocated                    :   1028.0 Mbytes

+------------------ E N D   A N S Y S   S T A T I S T I C S -------------------+


 *---------------------------------------------------------------------------*
 |                                                                           |
 |                            ANSYS RUN COMPLETED                            |
 |                                                                           |
 |---------------------------------------------------------------------------|
 |                                                                           |
 |            Release 14.0           UP20111024         WINDOWS x64          |
 |                                                                           |
 |---------------------------------------------------------------------------|
 |                                                                           |
 | Database Requested(-db)   512 MB    Scratch Memory Requested       512 MB |
 | Maximum Database Used       2 MB    Maximum Scratch Memory Used     84 MB |
 |                                                                           |
 |---------------------------------------------------------------------------|
 |                                                                           |
 |        CP Time      (sec) =          7.691       Time  =  03:28:55        |
 |        Elapsed Time (sec) =         12.000       Date  =  04/12/2015      |
 |                                                                           |
 *---------------------------------------------------------------------------*
