
 ANSYS Multiphysics                                


 *------------------------------------------------------------------*
 |                                                                  |
 |   W E L C O M E   T O   T H E   A N S Y S (R)  P R O G R A M     |
 |                                                                  |
 *------------------------------------------------------------------*




 ***************************************************************
 *                  ANSYS 14.0 LEGAL NOTICES                   *
 ***************************************************************
 *                                                             *
 * Copyright 2011 SAS IP, Inc.  All rights reserved.           *
 * Unauthorized use, distribution or duplication is            *
 * prohibited.                                                 *
 *                                                             *
 * Ansys is a registered trademark of ANSYS, Inc. or its       *
 * subsidiaries in the United States or other countries.       *
 * See the ANSYS, Inc. online documentation or the ANSYS, Inc. *
 * documentation CD or online help for the complete Legal      *
 * Notice.                                                     *
 *                                                             *
 ***************************************************************
 *                                                             *
 * THIS ANSYS SOFTWARE PRODUCT AND PROGRAM DOCUMENTATION       *
 * INCLUDE TRADE SECRETS AND CONFIDENTIAL AND PROPRIETARY      *
 * PRODUCTS OF ANSYS, INC., ITS SUBSIDIARIES, OR LICENSORS.    *
 * The software products and documentation are furnished by    *
 * ANSYS, Inc. or its subsidiaries under a software license    *
 * agreement that contains provisions concerning               *
 * non-disclosure, copying, length and nature of use,          *
 * compliance with exporting laws, warranties, disclaimers,    *
 * limitations of liability, and remedies, and other           *
 * provisions.  The software products and documentation may be *
 * used, disclosed, transferred, or copied only in accordance  *
 * with the terms and conditions of that software license      *
 * agreement.                                                  *
 *                                                             *
 * ANSYS, Inc. is a UL registered                              *
 * ISO 9001:2008 company.                                      *
 *                                                             *
 ***************************************************************
 *                                                             *
 * This product is subject to U.S. laws governing export and   *
 * re-export.                                                  *
 *                                                             *
 * For U.S. Government users, except as specifically granted   *
 * by the ANSYS, Inc. software license agreement, the use,     *
 * duplication, or disclosure by the United States Government  *
 * is subject to restrictions stated in the ANSYS, Inc.        *
 * software license agreement and FAR 12.212 (for non-DOD      *
 * licenses).                                                  *
 *                                                             *
 ***************************************************************



          *****  ANSYS COMMAND LINE ARGUMENTS  *****
  BATCH MODE REQUESTED (-b)    = NOLIST
  INPUT FILE COPY MODE (-c)    = COPY
     2 PARALLEL CPUS REQUESTED
  START-UP FILE MODE           = NOREAD
  STOP FILE MODE               = NOREAD

 00000000          VERSION=WINDOWS x64     RELEASE= 14.0     UP20111024
 CURRENT JOBNAME=file  19:54:03  APR 27, 2015 CP=      2.652


 PARAMETER _DS_PROGRESS =     999.0000000    

 /INPUT FILE= ds.dat  LINE=       0



 DO NOT WRITE ELEMENT RESULTS INTO DATABASE

 *GET  _WALLSTRT  FROM  ACTI  ITEM=TIME WALL  VALUE=  19.9008333    

 TITLE= 
 iMAmodelFerma--Static Structural (B5)                                         


 SET PARAMETER DIMENSIONS ON  _WB_PROJECTSCRATCH_DIR
  TYPE=STRI  DIMENSIONS=      248        1        1

 PARAMETER _WB_PROJECTSCRATCH_DIR(1) = C:\Users\slesh\Documents\MATLAB\Workspace\iMA\ansys\_ProjectScratch\Scr16E0\

 SET PARAMETER DIMENSIONS ON  _WB_SOLVERFILES_DIR
  TYPE=STRI  DIMENSIONS=      248        1        1

 PARAMETER _WB_SOLVERFILES_DIR(1) = C:\Users\slesh\Documents\MATLAB\Workspace\iMA\ansys\iMAmodelFerma_files\dp0\SYS\MECH\

 SET PARAMETER DIMENSIONS ON  _WB_USERFILES_DIR
  TYPE=STRI  DIMENSIONS=      248        1        1

 PARAMETER _WB_USERFILES_DIR(1) = C:\Users\slesh\Documents\MATLAB\Workspace\iMA\ansys\iMAmodelFerma_files\user_files\
 --- Data in consistent MKS units.

 MKS UNITS SPECIFIED FOR INTERNAL    
  LENGTH        (l)  = METER (M)
  MASS          (M)  = KILOGRAM (KG)
  TIME          (t)  = SECOND (SEC)
  TEMPERATURE   (T)  = CELSIUS (C)
  TOFFSET            = 273.0
  CHARGE        (Q)  = COULOMB
  FORCE         (f)  = NEWTON (N) (KG-M/SEC2)
  HEAT               = JOULE (N-M)

  PRESSURE           = PASCAL (NEWTON/M**2)
  ENERGY        (W)  = JOULE (N-M)
  POWER         (P)  = WATT (N-M/SEC)
  CURRENT       (i)  = AMPERE (COULOMBS/SEC)
  CAPACITANCE   (C)  = FARAD
  INDUCTANCE    (L)  = HENRY
  MAGNETIC FLUX      = WEBER
  RESISTANCE    (R)  = OHM
  ELECTRIC POTENTIAL = VOLT

 INPUT  UNITS ARE ALSO SET TO MKS 
1

 ***** ANSYS - ENGINEERING ANALYSIS SYSTEM  RELEASE 14.0     *****
 ANSYS Multiphysics                                
 00000000          VERSION=WINDOWS x64   19:54:03  APR 27, 2015 CP=      2.683

 iMAmodelFerma--Static Structural (B5)                                         


          ***** ANSYS ANALYSIS DEFINITION (PREP7) *****
 *********** Nodes for the whole assembly ***********
 *********** Elements for Body 1 "Line Body" ***********
 *********** Send User Defined Coordinate System(s) ***********
 *********** Set Reference Temperature ***********
 *********** Send Materials ***********
 *********** Send Beam Properties ***********
 *********** Define Vertex Force Using Follower Elements ***********
 *********** Create Remote Point "Internal Remote Point 2" ***********
 *********** Create Remote Point "Internal Remote Point 3" ***********
 *********** Create Remote Point "Internal Remote Point 4" ***********
 *********** Construct Remote Displacement Using RBE3/CERIG Contact ***********
 *********** Construct Remote Displacement Using RBE3/CERIG Contact ***********
 *** Created for Use in Spectrum Analysis ***
 *** Created for Use in Spectrum Analysis ***
 *********** Create Joint "Spherical - Line Body To Line Body" ***********
             Real Contact Set For Above Joint Is 8


 ***** ROUTINE COMPLETED *****  CP =         2.808


 --- Number of total nodes = 73
 --- Number of contact elements = 0
 --- Number of spring elements = 0
 --- Number of solid elements = 22
 --- Number of total elements = 74

 *GET  _WALLBSOL  FROM  ACTI  ITEM=TIME WALL  VALUE=  19.9008333    
 ****************************************************************************
 *************************    SOLUTION       ********************************
 ****************************************************************************

 *****  ANSYS SOLUTION ROUTINE  *****


 PERFORM A STATIC ANALYSIS
  THIS WILL BE A NEW ANALYSIS

 NEW SOLUTION CONTROL OPTION IS ACTIVATED,
 THE FOLLOWING COMMANDS ARE RESET TO NEW DEFAULTS: 
 AUTOTS, DELTIM, NSUB, CNVTOL, LNSRCH, PRED, NROPT,
 TINTP, CUTCONTROL, OPNCONTROL, MONITOR, NEQIT, SSTIF, KBC.

 CONTACT TIME PREDICTIONS ARE BASED ON ELEMENT KEYOPT(7) SPECIFIED 

 CONTACT INFORMATION PRINTOUT LEVEL    1

 NLDIAG: Nonlinear diagnostics CONT option is set to ON. 
         Writing frequency : each ITERATION.

 DO NOT SAVE ANY RESTART FILES AT ALL
 ****************************************************
 ******************* SOLVE FOR LS 1 ****************

 SELECT       FOR ITEM=REAL COMPONENT=    
  IN RANGE       2 TO        2 STEP        1

        1  ELEMENTS (OF       74  DEFINED) SELECTED BY  ESEL  COMMAND.

 SPECIFIED SURFACE LOAD PRES FOR ALL SELECTED ELEMENTS  LKEY =  1   KVAL = 1
      SET ACCORDING TO TABLE PARAMETER = _LOADVARI53X                    

 SELECT       FOR ITEM=REAL COMPONENT=    
  IN RANGE       3 TO        3 STEP        1

        1  ELEMENTS (OF       74  DEFINED) SELECTED BY  ESEL  COMMAND.

 SPECIFIED SURFACE LOAD PRES FOR ALL SELECTED ELEMENTS  LKEY =  1   KVAL = 1
      SET ACCORDING TO TABLE PARAMETER = _LOADVARI53Y                    

 SELECT       FOR ITEM=REAL COMPONENT=    
  IN RANGE       4 TO        4 STEP        1

        1  ELEMENTS (OF       74  DEFINED) SELECTED BY  ESEL  COMMAND.

 SPECIFIED SURFACE LOAD PRES FOR ALL SELECTED ELEMENTS  LKEY =  1   KVAL = 1
      SET ACCORDING TO TABLE PARAMETER = _LOADVARI53Z                    

 ALL SELECT   FOR ITEM=ELEM COMPONENT=    
  IN RANGE       1 TO       78 STEP        1

       74  ELEMENTS (OF       74  DEFINED) SELECTED BY  ESEL  COMMAND.

 SPECIFIED CONSTRAINT UX   FOR SELECTED NODES        48 TO       48 BY        1
 SET ACCORDING TO TABLE PARAMETER = _LOADVARI47UX

 SPECIFIED CONSTRAINT UY   FOR SELECTED NODES        48 TO       48 BY        1
 SET ACCORDING TO TABLE PARAMETER = _LOADVARI47UY

 SPECIFIED CONSTRAINT UZ   FOR SELECTED NODES        48 TO       48 BY        1
 SET ACCORDING TO TABLE PARAMETER = _LOADVARI47UZ

 SPECIFIED CONSTRAINT ROTX FOR SELECTED NODES        48 TO       48 BY        1
 SET ACCORDING TO TABLE PARAMETER = _LOADVARI47ROTX

 SPECIFIED CONSTRAINT UX   FOR SELECTED NODES        49 TO       49 BY        1
 SET ACCORDING TO TABLE PARAMETER = _LOADVARI76UX

 SPECIFIED CONSTRAINT UY   FOR SELECTED NODES        49 TO       49 BY        1
 SET ACCORDING TO TABLE PARAMETER = _LOADVARI76UY

 SPECIFIED CONSTRAINT UZ   FOR SELECTED NODES        49 TO       49 BY        1
 SET ACCORDING TO TABLE PARAMETER = _LOADVARI76UZ

 SPECIFIED CONSTRAINT ROTX FOR SELECTED NODES        49 TO       49 BY        1
 SET ACCORDING TO TABLE PARAMETER = _LOADVARI76ROTX

 PRINTOUT RESUMED BY /GOP

 USE       1 SUBSTEPS INITIALLY THIS LOAD STEP FOR ALL  DEGREES OF FREEDOM
 FOR AUTOMATIC TIME STEPPING:
   USE      1 SUBSTEPS AS A MAXIMUM
   USE      1 SUBSTEPS AS A MINIMUM

 TIME=  1.0000    

 ERASE THE CURRENT DATABASE OUTPUT CONTROL TABLE.


 WRITE ALL  ITEMS TO THE DATABASE WITH A FREQUENCY OF NONE
   FOR ALL APPLICABLE ENTITIES

 WRITE NSOL ITEMS TO THE DATABASE WITH A FREQUENCY OF ALL 
   FOR ALL APPLICABLE ENTITIES

 WRITE RSOL ITEMS TO THE DATABASE WITH A FREQUENCY OF ALL 
   FOR ALL APPLICABLE ENTITIES

 WRITE STRS ITEMS TO THE DATABASE WITH A FREQUENCY OF ALL 
   FOR ALL APPLICABLE ENTITIES

 WRITE EPEL ITEMS TO THE DATABASE WITH A FREQUENCY OF ALL 
   FOR ALL APPLICABLE ENTITIES

 WRITE EPPL ITEMS TO THE DATABASE WITH A FREQUENCY OF ALL 
   FOR ALL APPLICABLE ENTITIES

 PRINTOUT RESUMED BY /GOP

 WRITE MISC ITEMS TO THE DATABASE WITH A FREQUENCY OF ALL 
   FOR THE ENTITIES DEFINED BY COMPONENT _ELMISC 

 NONLINEAR STABILIZATION CONTROL:
 KEY=OFF 


 *GET  ANSINTER_  FROM  ACTI  ITEM=INT        VALUE=  0.00000000    

 *IF  ANSINTER_                         ( =   0.00000     )  NE  
      0                                 ( =   0.00000     )  THEN    

 *ENDIF

 *****  ANSYS SOLVE    COMMAND  *****

 *** WARNING ***                         CP =       2.808   TIME= 19:54:03
 Element shape checking is currently inactive.  Issue SHPP,ON or         
 SHPP,WARN to reactivate, if desired.                                    

 *** WARNING ***                         CP =       2.808   TIME= 19:54:03
 MPC184 elements are being used in the current analysis and the          
 NLGEOM,ON command has not been used.  Thus, only linearized behavior    
 will be considered.  If finite rotation and large deflection effects    
 are to be considered, please use the NLGEOM,ON command.                 

 *** NOTE ***                            CP =       2.824   TIME= 19:54:03
 The model data was checked and warning messages were found.             
  Please review output or errors file (                                  
 C:\Users\slesh\Documents\MATLAB\Workspace\iMA\ansys\_ProjectScratch\Scr 
 r16E0\file.err ) for these warning messages.                            

 *** SELECTION OF ELEMENT TECHNOLOGIES FOR APPLICABLE ELEMENTS ***
      --- GIVE SUGGESTIONS AND RESET THE KEY OPTIONS ---

 ELEMENT TYPE    1 IS BEAM188 . KEYOPT(3) IS ALREADY SET AS SUGGESTED AND NO
 RESETTING IS NEEDED.

 ELEMENT TYPE    1 IS BEAM188 . KEYOPT(15) IS ALREADY SET AS SUGGESTED AND NO
 RESETTING IS NEEDED.

 ELEMENT TYPE    5 IS BEAM188 . KEYOPT(3)=2 IS ALWAYS SUGGESTED.  KEYOPT(3) HAS BEEN RESET
  KEYOPT(1-12)=    0    0    2    0    0    0    0    0    0    0    0    0

 ELEMENT TYPE    5 IS BEAM188 . KEYOPT(15) IS ALREADY SET AS SUGGESTED AND NO
 RESETTING IS NEEDED.

 ELEMENT TYPE    6 IS BEAM188 . KEYOPT(3)=2 IS ALWAYS SUGGESTED.  KEYOPT(3) HAS BEEN RESET
  KEYOPT(1-12)=    0    0    2    0    0    0    0    0    0    0    0    0

 ELEMENT TYPE    6 IS BEAM188 . KEYOPT(15) IS ALREADY SET AS SUGGESTED AND NO
 RESETTING IS NEEDED.

 ELEMENT TYPE    7 IS BEAM188 . KEYOPT(3)=2 IS ALWAYS SUGGESTED.  KEYOPT(3) HAS BEEN RESET
  KEYOPT(1-12)=    0    0    2    0    0    0    0    0    0    0    0    0

 ELEMENT TYPE    7 IS BEAM188 . KEYOPT(15) IS ALREADY SET AS SUGGESTED AND NO
 RESETTING IS NEEDED.


1

 ***** ANSYS - ENGINEERING ANALYSIS SYSTEM  RELEASE 14.0     *****
 ANSYS Multiphysics                                
 00000000          VERSION=WINDOWS x64   19:54:03  APR 27, 2015 CP=      2.824

 iMAmodelFerma--Static Structural (B5)                                         


                       S O L U T I O N   O P T I O N S

   PROBLEM DIMENSIONALITY. . . . . . . . . . . . .3-D                  
   DEGREES OF FREEDOM. . . . . . UX   UY   UZ   ROTX ROTY ROTZ
   ANALYSIS TYPE . . . . . . . . . . . . . . . . .STATIC (STEADY-STATE)
   OFFSET TEMPERATURE FROM ABSOLUTE ZERO . . . . .  273.15    
   GLOBALLY ASSEMBLED MATRIX . . . . . . . . . . .SYMMETRIC  

 *** WARNING ***                         CP =       2.824   TIME= 19:54:03
 Material number 8 (used by element 23 ) should normally have at least   
 one MP or one TB type command associated with it.  Output of energy by  
 material may not be available.                                          

 *** NOTE ***                            CP =       2.824   TIME= 19:54:03
 The step data was checked and warning messages were found.              
  Please review output or errors file (                                  
 C:\Users\slesh\Documents\MATLAB\Workspace\iMA\ansys\_ProjectScratch\Scr 
 r16E0\file.err ) for these warning messages.                            

 *** NOTE ***                            CP =       2.824   TIME= 19:54:03
 Internal nodes from 74 to 146 are created.                              
 3 internal nodes are used for non-contact elements with mixed           
 formulation.                                                            
 70 internal nodes are used for quadratic and/or cubic options of        
 BEAM188, PIPE288, and/or SHELL208.                                      

                      L O A D   S T E P   O P T I O N S

   LOAD STEP NUMBER. . . . . . . . . . . . . . . .     1
   TIME AT END OF THE LOAD STEP. . . . . . . . . .  1.0000    
   NUMBER OF SUBSTEPS. . . . . . . . . . . . . . .     1
   STEP CHANGE BOUNDARY CONDITIONS . . . . . . . .    NO
   PRINT OUTPUT CONTROLS . . . . . . . . . . . . .NO PRINTOUT
   DATABASE OUTPUT CONTROLS
      ITEM     FREQUENCY   COMPONENT
       ALL       NONE               
      NSOL        ALL               
      RSOL        ALL               
      STRS        ALL               
      EPEL        ALL               
      EPPL        ALL               
      MISC        ALL       _ELMISC 


 SOLUTION MONITORING INFO IS WRITTEN TO FILE= file.mntr                                                                                                                                                                                                                                                           

 *** NOTE ***                            CP =       2.995   TIME= 19:54:03
 Predictor is ON by default for structural elements with rotational      
 degrees of freedom.  Use the PRED,OFF command to turn the predictor     
 OFF if it adversely affects the convergence.                            




            **** CENTER OF MASS, MASS, AND MASS MOMENTS OF INERTIA ****

  CALCULATIONS ASSUME ELEMENT MASS AT ELEMENT CENTROID

  TOTAL MASS =   61.166    

                           MOM. OF INERTIA         MOM. OF INERTIA
  CENTER OF MASS            ABOUT ORIGIN        ABOUT CENTER OF MASS

  XC =  0.78404          IXX =    11.81          IXX =    2.935    
  YC =  0.38100          IYY =    49.41          IYY =    11.81    
  ZC =   0.0000          IZZ =    61.23          IZZ =    14.75    
                         IXY =   -18.27          IXY =   0.2613E-08
                         IYZ =    0.000          IYZ =    0.000    
                         IZX =    0.000          IZX =    0.000    


  *** MASS SUMMARY BY ELEMENT TYPE ***

  TYPE      MASS
     1   61.1658    

 Range of element maximum matrix coefficients in global coordinates
 Maximum = 3.159442892E+12 at element 63.                                
 Minimum = 2.2822545E+10 at element 14.                                  

   *** ELEMENT MATRIX FORMULATION TIMES
  TYPE  NUMBER   ENAME      TOTAL CP  AVE CP

     1      22  BEAM188       0.000   0.000000
     2       3  CLOAD201      0.000   0.000000
     5      16  BEAM188       0.000   0.000000
     6      16  BEAM188       0.062   0.003900
     7      16  BEAM188       0.000   0.000000
     8       1  MPC184        0.000   0.000000
 Time at end of element matrix formulation CP = 3.05761957.              

 SPARSE MATRIX DIRECT SOLVER.
  Number of equations =         721,    Maximum wavefront =     72
  Memory allocated for solver =                15.259 MB
  Memory required for in-core =                 0.465 MB
  Optimal memory required for out-of-core =     0.245 MB
  Minimum memory required for out-of-core =     0.240 MB

 *** NOTE ***                            CP =       3.089   TIME= 19:54:03
 The Sparse Matrix solver is currently running in the in-core memory     
 mode.  This memory mode uses the most amount of memory in order to      
 avoid using the hard drive as much as possible, which most often        
 results in the fastest solution time.  This mode is recommended if      
 enough physical memory is present to accommodate all of the solver      
 data.                                                                   

 *** WARNING ***                         CP =       3.089   TIME= 19:54:03
 Pivoting has been activated for the Sparse Matrix solver.  The memory   
 required may greatly exceed the predicted amount.  In that event, use   
 the BCSOPTION command to change the memory mode and/or memory size      
 used by the Sparse Matrix solver.                                       
 Sparse solver maximum pivot= 2.590129157E+24 at node 47 UY.             
 Sparse solver minimum pivot= 904322.457 at node 51 ROTX.                
 Sparse solver minimum pivot in absolute value= 904322.457 at node 51    
 ROTX.                                                                   

   *** ELEMENT RESULT CALCULATION TIMES
  TYPE  NUMBER   ENAME      TOTAL CP  AVE CP

     1      22  BEAM188       0.031   0.001418
     2       3  CLOAD201      0.000   0.000000
     5      16  BEAM188       0.031   0.001950
     6      16  BEAM188       0.000   0.000000
     7      16  BEAM188       0.000   0.000000
     8       1  MPC184        0.000   0.000000

   *** NODAL LOAD CALCULATION TIMES
  TYPE  NUMBER   ENAME      TOTAL CP  AVE CP

     1      22  BEAM188       0.000   0.000000
     2       3  CLOAD201      0.000   0.000000
     5      16  BEAM188       0.000   0.000000
     6      16  BEAM188       0.000   0.000000
     7      16  BEAM188       0.000   0.000000
     8       1  MPC184        0.000   0.000000
 *** LOAD STEP     1   SUBSTEP     1  COMPLETED.    CUM ITER =      1
 *** TIME =   1.00000         TIME INC =   1.00000      NEW TRIANG MATRIX


 *** ANSYS BINARY FILE STATISTICS
  BUFFER SIZE USED= 16384
        0.062 MB WRITTEN ON ELEMENT MATRIX FILE: file.emat
        2.125 MB WRITTEN ON ELEMENT SAVED DATA FILE: file.esav
        0.188 MB WRITTEN ON ASSEMBLED MATRIX FILE: file.full
        0.562 MB WRITTEN ON RESULTS FILE: file.rst
 *************** Write FE CONNECTORS *********

 WRITE OUT CONSTRAINT EQUATIONS TO FILE= file.ce                                                                                                                                                                                                                                                             
 ****************************************************
 *************** FINISHED SOLVE FOR LS 1 *************

 PARAMETER _DS_PROGRESS  DELETED.

 *GET  _WALLASOL  FROM  ACTI  ITEM=TIME WALL  VALUE=  19.9008333    

 FINISH SOLUTION PROCESSING


 ***** ROUTINE COMPLETED *****  CP =         3.229


1

 ***** ANSYS - ENGINEERING ANALYSIS SYSTEM  RELEASE 14.0     *****
 ANSYS Multiphysics                                
 00000000          VERSION=WINDOWS x64   19:54:03  APR 27, 2015 CP=      3.260

 iMAmodelFerma--Static Structural (B5)                                         


          ***** ANSYS RESULTS INTERPRETATION (POST1) *****

 *** NOTE ***                            CP =       3.260   TIME= 19:54:03
 Reading results into the database (SET command) will update the current 
 displacement and force boundary conditions in the database with the     
 values from the results file for that load set.  Note that any          
 subsequent solutions will use these values unless action is taken to    
 either SAVE the current values or not overwrite them (/EXIT,NOSAVE).    

 Set Encoding of XML File to:ISO-8859-1

 Set Output of XML File to:
     PARM,     ,     ,     ,     ,     ,     ,     ,     ,     ,     ,     ,
         ,     ,     ,     ,     ,     ,     ,

 DATABASE WRITTEN ON FILE  parm.xml                                                                                                                                                                                                                                                            

 EXIT THE ANSYS POST1 DATABASE PROCESSOR


 ***** ROUTINE COMPLETED *****  CP =         3.260



 PRINTOUT RESUMED BY /GOP

 *GET  _WALLDONE  FROM  ACTI  ITEM=TIME WALL  VALUE=  19.9008333    

 PARAMETER _PREPTIME =     0.000000000    

 PARAMETER _SOLVTIME =     0.000000000    

 PARAMETER _POSTTIME =     0.000000000    

 PARAMETER _TOTALTIM =     0.000000000    

 EXIT ANSYS WITHOUT SAVING DATABASE


 NUMBER OF WARNING MESSAGES ENCOUNTERED=          4
 NUMBER OF ERROR   MESSAGES ENCOUNTERED=          0

+--------------------- A N S Y S   S T A T I S T I C S ------------------------+

Release: 14.0       Build: UP20111024   Platform: WINDOWS x64 
Date Run: 04/27/2015   Time: 19:54
Windows Process ID:         1436

Compiler: Intel(R) FORTRAN Compiler Version 11.1.0  (Build: 20100414)
          Microsoft(R) Visual C/C++ Compiler Version 15.0  (Build: 30729)
          Intel(R) Math Kernel Library Version 10.3.3 Product Build 20110314

Number of cores:   2 (Shared Memory Parallel)

GPU Acceleration: Not Requested

Job Name: file
Working Directory: C:\Users\slesh\Documents\MATLAB\Workspace\iMA\ansys\_ProjectScratch\Scr16E0

Elapsed time spent pre-processing model (/PREP7)  :      0.1 seconds
Elapsed time spent solution - preprocessing       :      0.0 seconds
Elapsed time spent computing solution             :      0.2 seconds
Elapsed time spent solution - postprocessing      :      0.0 seconds
Elapsed time spent post-processing model (/POST1) :      0.0 seconds

Equation solver computational rate                :     32.5 Mflops

Maximum total memory used                         :    543.0 Mbytes
Maximum total memory allocated                    :   1028.0 Mbytes

+------------------ E N D   A N S Y S   S T A T I S T I C S -------------------+


 *---------------------------------------------------------------------------*
 |                                                                           |
 |                            ANSYS RUN COMPLETED                            |
 |                                                                           |
 |---------------------------------------------------------------------------|
 |                                                                           |
 |            Release 14.0           UP20111024         WINDOWS x64          |
 |                                                                           |
 |---------------------------------------------------------------------------|
 |                                                                           |
 | Database Requested(-db)   512 MB    Scratch Memory Requested       512 MB |
 | Maximum Database Used       1 MB    Maximum Scratch Memory Used     28 MB |
 |                                                                           |
 |---------------------------------------------------------------------------|
 |                                                                           |
 |        CP Time      (sec) =          3.276       Time  =  19:54:03        |
 |        Elapsed Time (sec) =          5.000       Date  =  04/27/2015      |
 |                                                                           |
 *---------------------------------------------------------------------------*
